Simulation_Workspace/results/phase3_loadflow/phase3_bus_results.csv
Case_ID,Bus_Name,Vnom_kV,V_pu,V_kV,Angle_deg,P_inj_MW,Q_inj_MVAr
LF360_GAT_OUT,BGRID230,230.00,1.000000,230.000000,0.0000,-345.207254,26.267474
LF360_GAT_OUT,B22,22.00,1.000000,22.000000,-22.7815,360.000000,27.832638
LF360_GAT_OUT,B6_6,6.60,1.000909,6.605999,3.7773,-14.000000,-8.676420
LF360_GAT_OUT,B6_6_WI1,6.60,1.000909,6.605999,3.7773,NaN,NaN
LF360_GAT_OUT,B6_6_WI2,6.60,1.000909,6.605999,3.7773,NaN,NaN
LF360_GAT_OUT,B230_1,230.00,0.998959,229.760477,1.0482,-0.000000,-0.000000
LF360_GAT_OUT,B230_2,230.00,0.998959,229.760477,1.0482,NaN,NaN
LF360_GAT_OUT,GAT_HV,230.00,0.957238,220.164651,3.7752,-0.000000,0.000000
LF360_GAT_OUT,B230_REMOTE,230.00,0.998832,229.731274,0.9942,0.000000,0.000001
LF360_GAT_IN,BGRID230,230.00,1.000000,230.000000,0.0000,-345.194542,30.029544
LF360_GAT_IN,B22,22.00,1.000000,22.000000,-22.8687,360.000000,23.668784
LF360_GAT_IN,B6_6,6.60,1.020670,6.736419,2.4953,-14.000000,-8.676421
LF360_GAT_IN,B6_6_WI1,6.60,1.020670,6.736419,2.4953,NaN,NaN
LF360_GAT_IN,B6_6_WI2,6.60,1.020670,6.736419,2.4953,NaN,NaN
LF360_GAT_IN,B230_1,230.00,0.998760,229.714716,1.0485,-0.000000,-0.000000
LF360_GAT_IN,B230_2,230.00,0.998760,229.714716,1.0485,NaN,NaN
LF360_GAT_IN,GAT_HV,230.00,0.998761,229.715144,1.0486,-0.000000,-0.000000
LF360_GAT_IN,B230_REMOTE,230.00,0.998643,229.687837,0.9944,0.000000,0.000001
LF342_GAT_OUT,BGRID230,230.00,1.000000,230.000000,0.0000,-327.273302,23.825095
LF342_GAT_OUT,B22,22.00,1.000000,22.000000,-23.1586,342.010000,25.845089
LF342_GAT_OUT,B6_6,6.60,1.000908,6.605990,3.4003,-14.000000,-8.676420
LF342_GAT_OUT,B6_6_WI1,6.60,1.000908,6.605990,3.4003,NaN,NaN
LF342_GAT_OUT,B6_6_WI2,6.60,1.000908,6.605990,3.4003,NaN,NaN
LF342_GAT_OUT,B230_1,230.00,0.999061,229.784130,0.9936,-0.000000,-0.000000
LF342_GAT_OUT,B230_2,230.00,0.999061,229.784130,0.9936,NaN,NaN
LF342_GAT_OUT,GAT_HV,230.00,0.957235,220.164026,3.3981,-0.000000,0.000000
LF342_GAT_OUT,B230_REMOTE,230.00,0.998939,229.755972,0.9424,0.000000,0.000000
LF342_GAT_IN,BGRID230,230.00,1.000000,230.000000,0.0000,-327.263138,27.620156
LF342_GAT_IN,B22,22.00,1.000000,22.000000,-23.2352,342.010000,21.697087
LF342_GAT_IN,B6_6,6.60,1.020865,6.737706,2.2748,-14.000000,-8.676421
LF342_GAT_IN,B6_6_WI1,6.60,1.020865,6.737706,2.2748,NaN,NaN
LF342_GAT_IN,B6_6_WI2,6.60,1.020865,6.737706,2.2748,NaN,NaN
LF342_GAT_IN,B230_1,230.00,0.998861,229.737968,0.9939,-0.000000,-0.000000
LF342_GAT_IN,B230_2,230.00,0.998861,229.737968,0.9939,NaN,NaN
LF342_GAT_IN,GAT_HV,230.00,0.998862,229.738345,0.9940,-0.000000,-0.000000
LF342_GAT_IN,B230_REMOTE,230.00,0.998748,229.712155,0.9426,0.000000,0.000001
LF389P30_GAT_OUT,BGRID230,230.00,1.000000,230.000000,0.0000,-374.409463,30.502191
LF389P30_GAT_OUT,B22,22.00,1.000000,22.000000,-22.1668,389.300000,31.326665
LF389P30_GAT_OUT,B6_6,6.60,1.000911,6.606014,4.3921,-14.000000,-8.676420
LF389P30_GAT_OUT,B6_6_WI1,6.60,1.000911,6.606014,4.3921,NaN,NaN
LF389P30_GAT_OUT,B6_6_WI2,6.60,1.000911,6.606014,4.3921,NaN,NaN
LF389P30_GAT_OUT,B230_1,230.00,0.998779,229.719274,1.1372,-0.000000,-0.000000
LF389P30_GAT_OUT,B230_2,230.00,0.998779,229.719274,1.1372,NaN,NaN
LF389P30_GAT_OUT,GAT_HV,230.00,0.957242,220.165667,4.3899,-0.000000,0.000000
LF389P30_GAT_OUT,B230_REMOTE,230.00,0.998646,229.688482,1.0785,0.000000,0.000001
LF389P30_GAT_IN,BGRID230,230.00,1.000000,230.000000,0.0000,-374.392417,34.203304
LF389P30_GAT_IN,B22,22.00,1.000000,22.000000,-22.2712,389.300000,27.129963
LF389P30_GAT_IN,B6_6,6.60,1.020329,6.734173,2.8548,-14.000000,-8.676421
LF389P30_GAT_IN,B6_6_WI1,6.60,1.020329,6.734173,2.8548,NaN,NaN
LF389P30_GAT_IN,B6_6_WI2,6.60,1.020329,6.734173,2.8548,NaN,NaN
LF389P30_GAT_IN,B230_1,230.00,0.998584,229.674255,1.1375,-0.000000,-0.000000
LF389P30_GAT_IN,B230_2,230.00,0.998584,229.674255,1.1375,NaN,NaN
LF389P30_GAT_IN,GAT_HV,230.00,0.998586,229.674766,1.1376,-0.000000,-0.000000
LF389P30_GAT_IN,B230_REMOTE,230.00,0.998460,229.645749,1.0787,0.000000,0.000001
